plots/csv/rotor_angle_dev_bus16_julia.csv
t_s,rotor_angle_dev_rad,bus_voltage_angle_dev_rad,angle_source,angle_is_exact_bus_voltage
0.0,0.0,0.0,Vmag_get_voltage_magnitude_series__angle_get_voltage_angle_series,true
0.01,-3.226585665316891e-17,-3.226585665316891e-17,Vmag_get_voltage_magnitude_series__angle_get_voltage_angle_series,true
0.02,-2.903927098785189e-16,-2.903927098785189e-16,Vmag_get_voltage_magnitude_series__angle_get_voltage_angle_series,true
0.03,-4.5102810375395937e-17,-4.5102810375395937e-17,Vmag_get_voltage_magnitude_series__angle_get_voltage_angle_series,true
0.04,-7.788908407135379e-17,-7.788908407135379e-17,Vmag_get_voltage_magnitude_series__angle_get_voltage_angle_series,true
0.05,-3.5214886562330664e-17,-3.5214886562330664e-17,Vmag_get_voltage_magnitude_series__angle_get_voltage_angle_series,true
0.06,-2.3904489498960157e-16,-2.3904489498960157e-16,Vmag_get_voltage_magnitude_series__angle_get_voltage_angle_series,true
0.07,-6.245004513517006e-17,-6.245004513517006e-17,Vmag_get_voltage_magnitude_series__angle_get_voltage_angle_series,true
0.08,-6.418476861112367e-18,-6.418476861112367e-18,Vmag_get_voltage_magnitude_series__angle_get_voltage_angle_series,true
0.09,-6.435824095873747e-17,-6.435824095873747e-17,Vmag_get_voltage_magnitude_series__angle_get_voltage_angle_series,true
0.1,7.37257477290143e-17,7.37257477290143e-17,Vmag_get_voltage_magnitude_series__angle_get_voltage_angle_series,true
0.11,-0.0031162417520992853,-0.0031162417520992853,Vmag_get_voltage_magnitude_series__angle_get_voltage_angle_series,true
0.12,-0.0033318537052113312,-0.0033318537052113312,Vmag_get_voltage_magnitude_series__angle_get_voltage_angle_series,true
0.13,-0.003537207615995196,-0.003537207615995196,Vmag_get_voltage_magnitude_series__angle_get_voltage_angle_series,true
0.14,-0.0038259177912300327,-0.0038259177912300327,Vmag_get_voltage_magnitude_series__angle_get_voltage_angle_series,true
0.15,-0.004072886765792073,-0.004072886765792073,Vmag_get_voltage_magnitude_series__angle_get_voltage_angle_series,true
0.16,-0.004362793855575027,-0.004362793855575027,Vmag_get_voltage_magnitude_series__angle_get_voltage_angle_series,true
0.17,-0.004670300438108485,-0.004670300438108485,Vmag_get_voltage_magnitude_series__angle_get_voltage_angle_series,true
0.18,-0.005001108384162197,-0.005001108384162197,Vmag_get_voltage_magnitude_series__angle_get_voltage_angle_series,true
0.19,-0.005350816330316412,-0.005350816330316412,Vmag_get_voltage_magnitude_series__angle_get_voltage_angle_series,true
0.2,-0.005720261108075605,-0.005720261108075605,Vmag_get_voltage_magnitude_series__angle_get_voltage_angle_series,true
0.21,-0.006107364391452512,-0.006107364391452512,Vmag_get_voltage_magnitude_series__angle_get_voltage_angle_series,true
0.22,-0.006510961715023893,-0.006510961715023893,Vmag_get_voltage_magnitude_series__angle_get_voltage_angle_series,true
0.23,-0.006929547660657109,-0.006929547660657109,Vmag_get_voltage_magnitude_series__angle_get_voltage_angle_series,true
0.24,-0.007361773060928233,-0.007361773060928233,Vmag_get_voltage_magnitude_series__angle_get_voltage_angle_series,true
0.25,-0.007806248380336004,-0.007806248380336004,Vmag_get_voltage_magnitude_series__angle_get_voltage_angle_series,true
0.26,-0.008261657707279347,-0.008261657707279347,Vmag_get_voltage_magnitude_series__angle_get_voltage_angle_series,true
0.27,-0.008726728427921769,-0.008726728427921769,Vmag_get_voltage_magnitude_series__angle_get_voltage_angle_series,true
0.28,-0.009200246049138314,-0.009200246049138314,Vmag_get_voltage_magnitude_series__angle_get_voltage_angle_series,true
0.29,-0.009681048292936912,-0.009681048292936912,Vmag_get_voltage_magnitude_series__angle_get_voltage_angle_series,true
0.3,-0.010168024495427218,-0.010168024495427218,Vmag_get_voltage_magnitude_series__angle_get_voltage_angle_series,true
0.31,-0.010660111153150454,-0.010660111153150454,Vmag_get_voltage_magnitude_series__angle_get_voltage_angle_series,true
0.32,-0.011156287916798794,-0.011156287916798794,Vmag_get_voltage_magnitude_series__angle_get_voltage_angle_series,true
0.33,-0.01165557321605386,-0.01165557321605386,Vmag_get_voltage_magnitude_series__angle_get_voltage_angle_series,true
0.34,-0.012157020354251518,-0.012157020354251518,Vmag_get_voltage_magnitude_series__angle_get_voltage_angle_series,true
0.35,-0.012659713997982812,-0.012659713997982812,Vmag_get_voltage_magnitude_series__angle_get_voltage_angle_series,true
0.36,-0.013162767220792798,-0.013162767220792798,Vmag_get_voltage_magnitude_series__angle_get_voltage_angle_series,true
0.37,-0.013665319293186907,-0.013665319293186907,Vmag_get_voltage_magnitude_series__angle_get_voltage_angle_series,true
0.38,-0.01416653404383068,-0.01416653404383068,Vmag_get_voltage_magnitude_series__angle_get_voltage_angle_series,true
0.39,-0.014665598836327683,-0.014665598836327683,Vmag_get_voltage_magnitude_series__angle_get_voltage_angle_series,true
0.4,-0.015161724089221194,-0.015161724089221194,Vmag_get_voltage_magnitude_series__angle_get_voltage_angle_series,true
0.41,-0.015654143257469975,-0.015654143257469975,Vmag_get_voltage_magnitude_series__angle_get_voltage_angle_series,true
0.42,-0.016142113249860094,-0.016142113249860094,Vmag_get_voltage_magnitude_series__angle_get_voltage_angle_series,true
0.43,-0.01662491509781919,-0.01662491509781919,Vmag_get_voltage_magnitude_series__angle_get_voltage_angle_series,true
0.44,-0.017101854914715848,-0.017101854914715848,Vmag_get_voltage_magnitude_series__angle_get_voltage_angle_series,true
0.45,-0.017572264962758863,-0.017572264962758863,Vmag_get_voltage_magnitude_series__angle_get_voltage_angle_series,true
0.46,-0.018035504893837588,-0.018035504893837588,Vmag_get_voltage_magnitude_series__angle_get_voltage_angle_series,true
0.47,-0.018490962983147258,-0.018490962983147258,Vmag_get_voltage_magnitude_series__angle_get_voltage_angle_series,true
0.48,-0.01893805742051434,-0.01893805742051434,Vmag_get_voltage_magnitude_series__angle_get_voltage_angle_series,true
0.49,-0.01937623748089378,-0.01937623748089378,Vmag_get_voltage_magnitude_series__angle_get_voltage_angle_series,true
0.5,-0.01980498475918545,-0.01980498475918545,Vmag_get_voltage_magnitude_series__angle_get_voltage_angle_series,true
0.51,-0.020223814224197466,-0.020223814224197466,Vmag_get_voltage_magnitude_series__angle_get_voltage_angle_series,true
0.52,-0.02063227525340657,-0.02063227525340657,Vmag_get_voltage_magnitude_series__angle_get_voltage_angle_series,true
0.53,-0.021029952445305897,-0.021029952445305897,Vmag_get_voltage_magnitude_series__angle_get_voltage_angle_series,true
0.54,-0.02141646646016497,-0.02141646646016497,Vmag_get_voltage_magnitude_series__angle_get_voltage_angle_series,true
0.55,-0.021791474640054313,-0.021791474640054313,Vmag_get_voltage_magnitude_series__angle_get_voltage_angle_series,true
0.56,-0.022154671564000757,-0.022154671564000757,Vmag_get_voltage_magnitude_series__angle_get_voltage_angle_series,true
0.57,-0.02250578939310012,-0.02250578939310012,Vmag_get_voltage_magnitude_series__angle_get_voltage_angle_series,true
0.58,-0.022844598210351764,-0.022844598210351764,Vmag_get_voltage_magnitude_series__angle_get_voltage_angle_series,true
0.59,-0.02317090614312852,-0.02317090614312852,Vmag_get_voltage_magnitude_series__angle_get_voltage_angle_series,true
0.6,-0.023484559428442065,-0.023484559428442065,Vmag_get_voltage_magnitude_series__angle_get_voltage_angle_series,true
0.61,-0.0237854422674799,-0.0237854422674799,Vmag_get_voltage_magnitude_series__angle_get_voltage_angle_series,true
0.62,-0.02407347663187391,-0.02407347663187391,Vmag_get_voltage_magnitude_series__angle_get_voltage_angle_series,true
0.63,-0.024348621926622713,-0.024348621926622713,Vmag_get_voltage_magnitude_series__angle_get_voltage_angle_series,true
0.64,-0.024610874493359462,-0.024610874493359462,Vmag_get_voltage_magnitude_series__angle_get_voltage_angle_series,true
0.65,-0.024860267049742937,-0.024860267049742937,Vmag_get_voltage_magnitude_series__angle_get_voltage_angle_series,true
0.66,-0.02509686789128126,-0.02509686789128126,Vmag_get_voltage_magnitude_series__angle_get_voltage_angle_series,true
0.67,-0.025320780106349347,-0.025320780106349347,Vmag_get_voltage_magnitude_series__angle_get_voltage_angle_series,true
0.68,-0.02553214056349387,-0.02553214056349387,Vmag_get_voltage_magnitude_series__angle_get_voltage_angle_series,true
0.69,-0.025731118797157216,-0.025731118797157216,Vmag_get_voltage_magnitude_series__angle_get_voltage_angle_series,true
0.7,-0.025917915811737514,-0.025917915811737514,Vmag_get_voltage_magnitude_series__angle_get_voltage_angle_series,true
0.71,-0.026092762688431304,-0.026092762688431304,Vmag_get_voltage_magnitude_series__angle_get_voltage_angle_series,true
0.72,-0.02625591917427906,-0.02625591917427906,Vmag_get_voltage_magnitude_series__angle_get_voltage_angle_series,true
0.73,-0.02640767207373683,-0.02640767207373683,Vmag_get_voltage_magnitude_series__angle_get_voltage_angle_series,true
0.74,-0.026548333588117753,-0.026548333588117753,Vmag_get_voltage_magnitude_series__angle_get_voltage_angle_series,true
0.75,-0.026678239560335056,-0.026678239560335056,Vmag_get_voltage_magnitude_series__angle_get_voltage_angle_series,true
0.76,-0.026797747602299835,-0.026797747602299835,Vmag_get_voltage_magnitude_series__angle_get_voltage_angle_series,true
0.77,-0.02690723518676044,-0.02690723518676044,Vmag_get_voltage_magnitude_series__angle_get_voltage_angle_series,true
0.78,-0.027007097634715836,-0.027007097634715836,Vmag_get_voltage_magnitude_series__angle_get_voltage_angle_series,true
0.79,-0.027097746071722943,-0.027097746071722943,Vmag_get_voltage_magnitude_series__angle_get_voltage_angle_series,true
0.8,-0.027179605338017943,-0.027179605338017943,Vmag_get_voltage_magnitude_series__angle_get_voltage_angle_series,true
0.81,-0.0272531118681361,-0.0272531118681361,Vmag_get_voltage_magnitude_series__angle_get_voltage_angle_series,true
0.82,-0.027318711552182698,-0.027318711552182698,Vmag_get_voltage_magnitude_series__angle_get_voltage_angle_series,true
0.83,-0.02737685757234941,-0.02737685757234941,Vmag_get_voltage_magnitude_series__angle_get_voltage_angle_series,true
0.84,-0.02742800827920721,-0.02742800827920721,Vmag_get_voltage_magnitude_series__angle_get_voltage_angle_series,true
0.85,-0.027472625085242876,-0.027472625085242876,Vmag_get_voltage_magnitude_series__angle_get_voltage_angle_series,true
0.86,-0.02751117037160141,-0.02751117037160141,Vmag_get_voltage_magnitude_series__angle_get_voltage_angle_series,true
0.87,-0.027544105432517882,-0.027544105432517882,Vmag_get_voltage_magnitude_series__angle_get_voltage_angle_series,true
0.88,-0.02757188850467307,-0.02757188850467307,Vmag_get_voltage_magnitude_series__angle_get_voltage_angle_series,true
0.89,-0.027594972876279676,-0.027594972876279676,Vmag_get_voltage_magnitude_series__angle_get_voltage_angle_series,true
0.9,-0.027613805030564036,-0.027613805030564036,Vmag_get_voltage_magnitude_series__angle_get_voltage_angle_series,true
0.91,-0.02762882288852496,-0.02762882288852496,Vmag_get_voltage_magnitude_series__angle_get_voltage_angle_series,true
0.92,-0.027640454176134775,-0.027640454176134775,Vmag_get_voltage_magnitude_series__angle_get_voltage_angle_series,true
0.93,-0.027649114878610017,-0.027649114878610017,Vmag_get_voltage_magnitude_series__angle_get_voltage_angle_series,true
0.94,-0.027655207816829775,-0.027655207816829775,Vmag_get_voltage_magnitude_series__angle_get_voltage_angle_series,true
0.95,-0.02765912130872685,-0.02765912130872685,Vmag_get_voltage_magnitude_series__angle_get_voltage_angle_series,true
0.96,-0.027661228000151326,-0.027661228000151326,Vmag_get_voltage_magnitude_series__angle_get_voltage_angle_series,true
0.97,-0.027661883786751232,-0.027661883786751232,Vmag_get_voltage_magnitude_series__angle_get_voltage_angle_series,true
0.98,-0.02766142690591787,-0.02766142690591787,Vmag_get_voltage_magnitude_series__angle_get_voltage_angle_series,true
0.99,-0.027660177110157294,-0.027660177110157294,Vmag_get_voltage_magnitude_series__angle_get_voltage_angle_series,true
1.0,-0.027658435005359017,-0.027658435005359017,Vmag_get_voltage_magnitude_series__angle_get_voltage_angle_series,true
1.01,-0.027656481533132264,-0.027656481533132264,Vmag_get_voltage_magnitude_series__angle_get_voltage_angle_series,true
1.02,-0.027654577543112187,-0.027654577543112187,Vmag_get_voltage_magnitude_series__angle_get_voltage_angle_series,true
1.03,-0.0276529635509377,-0.0276529635509377,Vmag_get_voltage_magnitude_series__angle_get_voltage_angle_series,true
1.04,-0.02765185955843845,-0.02765185955843845,Vmag_get_voltage_magnitude_series__angle_get_voltage_angle_series,true
1.05,-0.027651465062957518,-0.027651465062957518,Vmag_get_voltage_magnitude_series__angle_get_voltage_angle_series,true
1.06,-0.027651959146650907,-0.027651959146650907,Vmag_get_voltage_magnitude_series__angle_get_voltage_angle_series,true
1.07,-0.027653500674064236,-0.027653500674064236,Vmag_get_voltage_magnitude_series__angle_get_voltage_angle_series,true
1.08,-0.02765622863403463,-0.02765622863403463,Vmag_get_voltage_magnitude_series__angle_get_voltage_angle_series,true
1.09,-0.027660262539419632,-0.027660262539419632,Vmag_get_voltage_magnitude_series__angle_get_voltage_angle_series,true
1.1,-0.027665702969753812,-0.027665702969753812,Vmag_get_voltage_magnitude_series__angle_get_voltage_angle_series,true
1.11,-0.027672632150912157,-0.027672632150912157,Vmag_get_voltage_magnitude_series__angle_get_voltage_angle_series,true
1.12,-0.027681114659451223,-0.027681114659451223,Vmag_get_voltage_magnitude_series__angle_get_voltage_angle_series,true
1.13,-0.02769119816058215,-0.02769119816058215,Vmag_get_voltage_magnitude_series__angle_get_voltage_angle_series,true
1.14,-0.02770291424628369,-0.02770291424628369,Vmag_get_voltage_magnitude_series__angle_get_voltage_angle_series,true
1.15,-0.02771627930152261,-0.02771627930152261,Vmag_get_voltage_magnitude_series__angle_get_voltage_angle_series,true
1.16,-0.027731295432204112,-0.027731295432204112,Vmag_get_voltage_magnitude_series__angle_get_voltage_angle_series,true
1.17,-0.027747951417304868,-0.027747951417304868,Vmag_get_voltage_magnitude_series__angle_get_voltage_angle_series,true
1.18,-0.027766223721254035,-0.027766223721254035,Vmag_get_voltage_magnitude_series__angle_get_voltage_angle_series,true
1.19,-0.027786077492281257,-0.027786077492281257,Vmag_get_voltage_magnitude_series__angle_get_voltage_angle_series,true
1.2,-0.02780746760650342,-0.02780746760650342,Vmag_get_voltage_magnitude_series__angle_get_voltage_angle_series,true
1.21,-0.027830339690909516,-0.027830339690909516,Vmag_get_voltage_magnitude_series__angle_get_voltage_angle_series,true
1.22,-0.027854631175699585,-0.027854631175699585,Vmag_get_voltage_magnitude_series__angle_get_voltage_angle_series,true
1.23,-0.02788027231352874,-0.02788027231352874,Vmag_get_voltage_magnitude_series__angle_get_voltage_angle_series,true
1.24,-0.027907187206795216,-0.027907187206795216,Vmag_get_voltage_magnitude_series__angle_get_voltage_angle_series,true
1.25,-0.027935294790654618,-0.027935294790654618,Vmag_get_voltage_magnitude_series__angle_get_voltage_angle_series,true
1.26,-0.027964509807948484,-0.027964509807948484,Vmag_get_voltage_magnitude_series__angle_get_voltage_angle_series,true
1.27,-0.027994743753096955,-0.027994743753096955,Vmag_get_voltage_magnitude_series__angle_get_voltage_angle_series,true
1.28,-0.028025905767906305,-0.028025905767906305,Vmag_get_voltage_magnitude_series__angle_get_voltage_angle_series,true
1.29,-0.02805790350388814,-0.02805790350388814,Vmag_get_voltage_magnitude_series__angle_get_voltage_angle_series,true
1.3,-0.028090643937384648,-0.028090643937384648,Vmag_get_voltage_magnitude_series__angle_get_voltage_angle_series,true
1.31,-0.028124034142965645,-0.028124034142965645,Vmag_get_voltage_magnitude_series__angle_get_voltage_angle_series,true
1.32,-0.028157982014056705,-0.028157982014056705,Vmag_get_voltage_magnitude_series__angle_get_voltage_angle_series,true
1.33,-0.028192396919994943,-0.028192396919994943,Vmag_get_voltage_magnitude_series__angle_get_voltage_angle_series,true
1.34,-0.028227190321281372,-0.028227190321281372,Vmag_get_voltage_magnitude_series__angle_get_voltage_angle_series,true
1.35,-0.028262276326216515,-0.028262276326216515,Vmag_get_voltage_magnitude_series__angle_get_voltage_angle_series,true
1.36,-0.02829757219119937,-0.02829757219119937,Vmag_get_voltage_magnitude_series__angle_get_voltage_angle_series,true
1.37,-0.028332998755241413,-0.028332998755241413,Vmag_get_voltage_magnitude_series__angle_get_voltage_angle_series,true
1.38,-0.028368480826001786,-0.028368480826001786,Vmag_get_voltage_magnitude_series__angle_get_voltage_angle_series,true
1.39,-0.028403947510695533,-0.028403947510695533,Vmag_get_voltage_magnitude_series__angle_get_voltage_angle_series,true
1.4,-0.02843933248501418,-0.02843933248501418,Vmag_get_voltage_magnitude_series__angle_get_voltage_angle_series,true
1.41,-0.02847457421570542,-0.02847457421570542,Vmag_get_voltage_magnitude_series__angle_get_voltage_angle_series,true
1.42,-0.028509616114783295,-0.028509616114783295,Vmag_get_voltage_magnitude_series__angle_get_voltage_angle_series,true
1.43,-0.028544406662050693,-0.028544406662050693,Vmag_get_voltage_magnitude_series__angle_get_voltage_angle_series,true
1.44,-0.028578899470523417,-0.028578899470523417,Vmag_get_voltage_magnitude_series__angle_get_voltage_angle_series,true
1.45,-0.028613053302511626,-0.028613053302511626,Vmag_get_voltage_magnitude_series__angle_get_voltage_angle_series,true
1.46,-0.028646832046904176,-0.028646832046904176,Vmag_get_voltage_magnitude_series__angle_get_voltage_angle_series,true
1.47,-0.028680204651091418,-0.028680204651091418,Vmag_get_voltage_magnitude_series__angle_get_voltage_angle_series,true
1.48,-0.02871314502357728,-0.02871314502357728,Vmag_get_voltage_magnitude_series__angle_get_voltage_angle_series,true
1.49,-0.02874563189687196,-0.02874563189687196,Vmag_get_voltage_magnitude_series__angle_get_voltage_angle_series,true
1.5,-0.0287776486537501,-0.0287776486537501,Vmag_get_voltage_magnitude_series__angle_get_voltage_angle_series,true
1.51,-0.028809183133600185,-0.028809183133600185,Vmag_get_voltage_magnitude_series__angle_get_voltage_angle_series,true
1.52,-0.02884022741437174,-0.02884022741437174,Vmag_get_voltage_magnitude_series__angle_get_voltage_angle_series,true
1.53,-0.02887077756717226,-0.02887077756717226,Vmag_get_voltage_magnitude_series__angle_get_voltage_angle_series,true
1.54,-0.028900833399789036,-0.028900833399789036,Vmag_get_voltage_magnitude_series__angle_get_voltage_angle_series,true
1.55,-0.028930398173345195,-0.028930398173345195,Vmag_get_voltage_magnitude_series__angle_get_voltage_angle_series,true
1.56,-0.0289594783231764,-0.0289594783231764,Vmag_get_voltage_magnitude_series__angle_get_voltage_angle_series,true
1.57,-0.02898808316117242,-0.02898808316117242,Vmag_get_voltage_magnitude_series__angle_get_voltage_angle_series,true
1.58,-0.029016224577034434,-0.029016224577034434,Vmag_get_voltage_magnitude_series__angle_get_voltage_angle_series,true
1.59,-0.02904391672728883,-0.02904391672728883,Vmag_get_voltage_magnitude_series__angle_get_voltage_angle_series,true
1.6,-0.02907117573880292,-0.02907117573880292,Vmag_get_voltage_magnitude_series__angle_get_voltage_angle_series,true
1.61,-0.02909801940563415,-0.02909801940563415,Vmag_get_voltage_magnitude_series__angle_get_voltage_angle_series,true
1.62,-0.029124466893260342,-0.029124466893260342,Vmag_get_voltage_magnitude_series__angle_get_voltage_angle_series,true
1.63,-0.029150538447748037,-0.029150538447748037,Vmag_get_voltage_magnitude_series__angle_get_voltage_angle_series,true
1.64,-0.02917625511548491,-0.02917625511548491,Vmag_get_voltage_magnitude_series__angle_get_voltage_angle_series,true
1.65,-0.029201638477170402,-0.029201638477170402,Vmag_get_voltage_magnitude_series__angle_get_voltage_angle_series,true
1.66,-0.029226710389898644,-0.029226710389898644,Vmag_get_voltage_magnitude_series__angle_get_voltage_angle_series,true
1.67,-0.02925149274428273,-0.02925149274428273,Vmag_get_voltage_magnitude_series__angle_get_voltage_angle_series,true
1.68,-0.029276007236521115,-0.029276007236521115,Vmag_get_voltage_magnitude_series__angle_get_voltage_angle_series,true
1.69,-0.029300275158412617,-0.029300275158412617,Vmag_get_voltage_magnitude_series__angle_get_voltage_angle_series,true
1.7,-0.02932431720575942,-0.02932431720575942,Vmag_get_voltage_magnitude_series__angle_get_voltage_angle_series,true
1.71,-0.02934815329896103,-0.02934815329896103,Vmag_get_voltage_magnitude_series__angle_get_voltage_angle_series,true
1.72,-0.029371802425903135,-0.029371802425903135,Vmag_get_voltage_magnitude_series__angle_get_voltage_angle_series,true
1.73,-0.02939528250415003,-0.02939528250415003,Vmag_get_voltage_magnitude_series__angle_get_voltage_angle_series,true
1.74,-0.02941861025862113,-0.02941861025862113,Vmag_get_voltage_magnitude_series__angle_get_voltage_angle_series,true
1.75,-0.02944180112093865,-0.02944180112093865,Vmag_get_voltage_magnitude_series__angle_get_voltage_angle_series,true
1.76,-0.029464869144147077,-0.029464869144147077,Vmag_get_voltage_magnitude_series__angle_get_voltage_angle_series,true
1.77,-0.029487826936363044,-0.029487826936363044,Vmag_get_voltage_magnitude_series__angle_get_voltage_angle_series,true
1.78,-0.029510685615012553,-0.029510685615012553,Vmag_get_voltage_magnitude_series__angle_get_voltage_angle_series,true
1.79,-0.029533454772695,-0.029533454772695,Vmag_get_voltage_magnitude_series__angle_get_voltage_angle_series,true
1.8,-0.02955614246321795,-0.02955614246321795,Vmag_get_voltage_magnitude_series__angle_get_voltage_angle_series,true
1.81,-0.029578755200311273,-0.029578755200311273,Vmag_get_voltage_magnitude_series__angle_get_voltage_angle_series,true
1.82,-0.029601297974555518,-0.029601297974555518,Vmag_get_voltage_magnitude_series__angle_get_voltage_angle_series,true
1.83,-0.029623774279488858,-0.029623774279488858,Vmag_get_voltage_magnitude_series__angle_get_voltage_angle_series,true
1.84,-0.029646186152868112,-0.029646186152868112,Vmag_get_voltage_magnitude_series__angle_get_voltage_angle_series,true
1.85,-0.029668534228023874,-0.029668534228023874,Vmag_get_voltage_magnitude_series__angle_get_voltage_angle_series,true
1.86,-0.029690817797669845,-0.029690817797669845,Vmag_get_voltage_magnitude_series__angle_get_voltage_angle_series,true
1.87,-0.02971303488442017,-0.02971303488442017,Vmag_get_voltage_magnitude_series__angle_get_voltage_angle_series,true
1.88,-0.02973518232106223,-0.02973518232106223,Vmag_get_voltage_magnitude_series__angle_get_voltage_angle_series,true
1.89,-0.029757255835675758,-0.029757255835675758,Vmag_get_voltage_magnitude_series__angle_get_voltage_angle_series,true
1.9,-0.029779250146048084,-0.029779250146048084,Vmag_get_voltage_magnitude_series__angle_get_voltage_angle_series,true
1.91,-0.02980115905525318,-0.02980115905525318,Vmag_get_voltage_magnitude_series__angle_get_voltage_angle_series,true
1.92,-0.02982297555315205,-0.02982297555315205,Vmag_get_voltage_magnitude_series__angle_get_voltage_angle_series,true
1.93,-0.029844691918073745,-0.029844691918073745,Vmag_get_voltage_magnitude_series__angle_get_voltage_angle_series,true
1.94,-0.029866299822089784,-0.029866299822089784,Vmag_get_voltage_magnitude_series__angle_get_voltage_angle_series,true
1.95,-0.029887790436599948,-0.029887790436599948,Vmag_get_voltage_magnitude_series__angle_get_voltage_angle_series,true
1.96,-0.029909154535868253,-0.029909154535868253,Vmag_get_voltage_magnitude_series__angle_get_voltage_angle_series,true
1.97,-0.029930382600051875,-0.029930382600051875,Vmag_get_voltage_magnitude_series__angle_get_voltage_angle_series,true
1.98,-0.02995146491632108,-0.02995146491632108,Vmag_get_voltage_magnitude_series__angle_get_voltage_angle_series,true
1.99,-0.029972391677523184,-0.029972391677523184,Vmag_get_voltage_magnitude_series__angle_get_voltage_angle_series,true
...
